28

C      -4.70072396     -0.37117249      0.05461193
C      -4.25232538     -1.68130362      0.16958028
C      -2.89970227     -1.96369372      0.15076916
C      -1.95956737     -0.93671902      0.01527083
C      -2.40150810      0.38068563     -0.10318316
C      -3.76504474      0.65026766     -0.08096741
H      -4.97742572     -2.47739806      0.27588124
H      -2.56974678     -2.99254401      0.24346151
C       2.98177285     -0.61392148     -0.02023753
C       3.26210298      0.71355190      0.31309095
C       4.03570099     -1.47806806     -0.33063175
C       4.57939306      1.15428727      0.32603161
H       2.46000282      1.39415338      0.54927562
C       5.34848151     -1.03606944     -0.31317293
C       5.61351088      0.28518087      0.01567330
H       4.80078274      2.18246429      0.58132142
H       6.16006033     -1.70954938     -0.55515592
Cl     -6.40436506     -0.05205794      0.08591060
Cl      7.26197575      0.85503323      0.03691732
N      -0.60589752     -1.30572192     -0.01556269
H      -0.43760868     -2.29539391      0.07378946
C       0.49120894     -0.45961825      0.02021641
O       0.41025939      0.74329481      0.09558960
N       1.68273239     -1.15607771     -0.03868685
H       1.63987404     -2.13887223     -0.25806219
H       3.82789222     -2.51069264     -0.59126012
H      -1.69883394      1.19201788     -0.20296017
Cl     -4.27082910      2.30182530     -0.22892034
