 xtb: 6.6.1 (8d0f1dd)
          04072509403D

  5  3  0     0  0            999 V2000
   -0.1744    4.6595    1.7659 O   0  0  0  0  0  0  0  0  0  0  0  0
   -0.8844    5.5024    0.6525 Cl  0  0  0  0  0  0  0  0  0  0  0  0
    2.1006    4.7849    3.8458 H   0  0  0  0  0  0  0  0  0  0  0  0
    1.9254    5.5108    3.2422 O   0  0  0  0  0  0  0  0  0  0  0  0
    1.1688    5.2382    2.6848 H   0  0  0  0  0  0  0  0  0  0  0  0
  1  2  1  0  0  0  0
  3  4  1  0  0  0  0
  4  5  1  0  0  0  0
M  END
