70

O  -0.99842806204156  2.69468435006021  -5.49637666370256
H  -1.70476879249520  2.89986925719429  -4.84717531012601
H  -0.10353106719833  2.33852970064385  -5.21361195602008
O  0.54727073407167  -2.31161137524506  -3.90296412812613
H  -0.38411201574681  -1.95292265794667  -4.26473765472258
H  1.27394173258260  -2.26663751555574  -4.56984995267245
O  -2.53435191206027  3.56871241838951  -2.83084268060637
H  -2.71229805979334  2.74998136915705  -2.47509712444093
H  -2.64582719104934  3.91310671392253  -3.67563311484563
O  0.93402448966764  2.88160048797625  1.88667477062914
H  1.77883057566480  2.99678287826536  1.37138109527572
H  1.47005203834813  2.95002975787715  2.74249836389726
O  2.67306332303249  0.55063538074657  4.85064897884809
H  2.01395255609732  1.09718465205125  4.44456556865970
H  3.47468573133834  1.09911805875378  4.71650225220556
O  4.36331801932557  0.49917694313910  1.56129470777669
H  4.05305345279584  0.79518722089897  2.42585898319607
H  5.33762897565251  0.20704975259609  1.64057050005777
O  4.26279533418797  -1.58850199177592  -1.12758222651287
H  4.19612630882158  -0.86039683818669  -0.49349310504198
H  4.42755681762628  -2.36417869666324  -0.60385415768235
O  -6.21148087478638  0.25695714620285  1.57626802433105
H  -6.95770242904920  -0.17050025434953  1.14472645814448
H  -5.77807361513655  0.91387717560345  1.01755217532433
O  -4.10912721839029  -3.34065454732303  -4.69057622192637
H  -3.36494991535080  -2.90751521735799  -4.26845964614770
H  -3.79141351856377  -3.75505439839808  -5.49454787042457
O  -3.70646436646080  5.95632580080675  2.48882780087701
H  -3.02363239123261  5.74739217928364  1.87054540755955
H  -3.87497938978787  5.48433246195780  3.34713644251027
O  7.35147301864168  -2.89487097326496  3.31029385958633
Cl  5.71174192832317  -3.08353408056293  2.75865971139264
H  7.33946280754191  -2.90754341018723  4.30486748883134
O  -1.50070240041242  6.73437729958628  1.37352678746920
Cl  -0.81276542769238  6.27306985723566  -0.15028614028469
H  -1.47603975632763  6.17518139637967  2.25473279466473
O  -1.19357441190475  5.26540285454824  3.75446976773537
Cl  -1.97420151172885  3.31145807336445  7.83180151685209
H  -1.59255972773466  4.33310703345780  3.63349437128895
O  0.08962237597362  0.19687760180426  -7.32618846306775
Cl  -0.37290562092052  -0.19501855877710  -5.85080440239163
H  0.63004130683613  -0.53618951800191  -7.58194412674459
C  4.14172556017752  1.38969612590900  -3.17894531642191
C  3.87939651127906  1.79039090313919  -1.87074380958523
C  2.74232969074279  1.26496903131704  -1.20576755607998
C  2.11219111349789  0.17139463648833  -1.66331108895278
C  2.25499968967698  -0.04911367583681  -3.06802921563832
C  3.18957189673346  0.61384963967290  -3.81744668798660
H  4.50612093415523  2.47496487004486  -1.34218437253581
H  2.63139044932947  1.48307033735204  -0.15714925627595
C  -1.44611024496852  -2.19703807101600  0.72017460707943
C  -2.42786351004397  -1.60321834520312  -0.10176308511088
C  -1.95721420087950  -3.16325096217108  1.60321285785457
C  -3.73782012434210  -1.74656405033567  0.30992066925908
H  -2.15340658760019  -0.90788634360744  -0.85872526377882
C  -3.32962496483245  -3.38408646835144  1.99605525230670
C  -4.24768856531178  -2.64288704641545  1.24837024565861
H  -4.44945409887749  -1.21849610998839  -0.30401432044136
H  -3.71622791925708  -4.14791352524317  2.62297956342179
Cl  5.14261406415433  2.56282845487917  -4.20185045541169
Cl  -6.00166329516691  -2.85793188014308  1.37882366224391
N  1.52680058833799  -0.88563920748193  -0.89920751112750
H  1.88997165209989  -1.79163111569797  -1.15580267554244
C  0.36027269390485  -0.53460544985391  -0.25021866110809
O  -0.29456764162079  0.45027062663683  -0.37714265072695
N  -0.16418842232123  -1.57299726910810  0.65963197836429
H  0.60406738880834  -2.08389477785317  1.02112856877688
H  -1.15945412893686  -3.64938562598455  2.20247758638386
H  1.46240995652864  -0.63262925396916  -3.54775240240127
Cl  3.59362395505662  0.32312487673301  -5.47834656645876
