70

O  -0.16461638113721  3.29239000147701  -4.91741467744367
H  0.40562821977131  3.07781211062997  -5.71718638992122
H  -1.06492200364900  2.99278387198820  -5.14394109667252
O  0.34441984672975  -2.52435279488288  -2.78664341488649
H  -0.45043405610069  -2.14680820413938  -2.64400154551134
H  0.24528123153166  -3.46116948574813  -2.89204357559078
O  -1.63280384900529  2.39032448601197  -3.13774155971347
H  -1.34657915849208  3.03644345344025  -2.45462624759531
H  -1.00983139612842  1.61690183185809  -3.04229461864370
O  0.14302484500352  2.73404593835233  2.27384719147965
H  0.01386350308253  2.38572237601829  3.21844732413885
H  -0.77045916481744  2.85419988565218  1.79207076939185
O  1.73006275661141  -0.08826521118357  3.15229007741650
H  0.78015358839863  -0.21949529542747  2.86319899556385
H  1.87575441796349  0.83818930563513  3.12785481097536
O  3.37272073638270  0.78642993559067  1.29929785154089
H  3.24337881344868  -0.06205090342880  1.73644311069099
H  4.16315343533919  0.94302344334451  0.80265378434331
O  4.66100735324879  -1.81687450184150  -0.53423012441849
H  5.51090412107371  -2.27799980318968  -0.64432026928807
H  4.84193418827771  -0.88620648833013  -0.76706862813259
O  -6.70448429165274  1.04925834395165  0.77012943385060
H  -7.31433770282569  0.90252988678491  0.04844596370261
H  -7.13270782942739  1.64939572801098  1.37920562572869
O  -4.08036462866238  -2.85636123599187  -3.83535010650794
H  -4.41292771442016  -2.76257852466123  -2.95123885486400
H  -3.44205384297738  -2.08072643898197  -3.98802571602222
O  -3.48357823494785  5.52418809491799  1.95169085614409
H  -4.30048076206773  5.51842112603014  1.34466579632298
H  -2.77540520806417  6.16320170783157  1.79648373564896
O  6.91533957051773  -2.46570124092922  3.01470949093565
Cl  5.35327176252139  -2.65316544406096  2.44349772717201
H  6.78257932876789  -1.63314635881334  3.47838697538741
O  -0.75420614068759  6.35138720623415  1.76556475842645
Cl  -1.41003667890639  6.02930365638637  0.26563176343064
H  -0.64648495195277  5.46424798682952  2.40951536108571
O  -0.36949639137072  4.50419763556190  3.32726430135323
Cl  -1.74224567752849  3.12461124141302  7.84410065963354
H  -0.81118696695172  5.01652687690230  4.01247801475891
O  1.24312589155426  -0.03898852498110  -6.92083566566283
Cl  0.08506418237055  -0.24430487189316  -5.72373335173953
H  1.89481800643100  0.59523038234955  -6.55770341537719
C  4.03252540013502  1.89065315352498  -3.43208117436339
C  3.82277743020252  2.15038250775311  -2.06781550209224
C  2.98244019162644  1.29888810000029  -1.30491074677739
C  2.25013373033104  0.21304966947674  -1.82760950932714
C  2.23566293226876  0.13305077198260  -3.27379370033501
C  3.15135786619173  0.91215341268423  -3.90976464528036
H  4.18880503901101  3.05185716610222  -1.60742373573354
H  2.78344210635147  1.79315284997980  -0.34521416602116
C  -1.53584646500579  -1.94008064283030  0.76861877318602
C  -2.56353909308663  -1.48219244105268  -0.07439047675897
C  -1.94538733340966  -2.57773102583828  1.92557580700717
C  -3.82594292610763  -1.99050477989592  0.24407307800189
H  -2.35720433001545  -0.99309562854171  -1.03332154651242
C  -3.20872605329337  -2.98374749098734  2.30898057324332
C  -4.19904296358697  -2.67192909964643  1.40300166943020
H  -4.60713708459700  -1.75247253421891  -0.45040104653106
H  -3.38408404466371  -3.55049694068219  3.21173408790444
Cl  5.21817609736033  2.44224045407387  -4.54556065285260
Cl  -5.80887127474393  -2.95293864244896  1.83166058230648
N  1.34553877497553  -0.60382554723403  -1.12018937696123
H  1.28795767355771  -1.47605840526542  -1.67009257563628
C  0.25617161369741  -0.51625875316872  -0.29309166808534
O  -0.42562308221508  0.34521508678942  0.24477449463276
N  -0.28563784968434  -1.80669744470224  0.00635818995602
H  0.41501415899134  -2.49130597853329  0.19622994178943
H  -1.21037557759490  -3.04556279072350  2.53772899053527
H  1.77270609884419  -0.62929506835976  -3.88574231313697
Cl  3.37345430022003  0.41210440940908  -5.62629636646124
