70

O  2.54577327626248  5.16606197886191  -4.26946861400688
H  3.49587875347144  5.18973809505402  -4.58173951009484
H  1.82701761218965  4.90576475929555  -4.93875729926038
O  -0.43300081850708  -4.71819741493267  -1.71282851846920
H  -0.15765686876651  -5.37437493235928  -2.33297567148660
H  -1.12982204710675  -5.00088430915127  -1.09766862079761
O  -1.25437913655583  -0.73627888026853  -4.02425508850982
H  -1.63369177387477  -1.56441340784878  -3.63873706353530
H  -1.92044528059034  -0.02488271576683  -3.98277188011863
O  -2.08918570574752  0.62020866310875  3.23132226008249
H  -2.69425037480887  -0.15004855834842  3.42611443102545
H  -2.65660861527333  1.37836121937011  3.12609050432349
O  1.31941239338365  -0.73785530625414  3.59358415461772
H  0.57703493075840  -0.36409557688138  4.12264675255351
H  2.10785512156021  -0.15640805663895  3.28753824243647
O  3.28463170006863  0.76796485775925  1.66961666786985
H  3.15851327405579  -0.14237353274438  1.43785474178142
H  3.92499282200906  0.98983613713608  2.27752766321799
O  5.31021429935581  -1.31453088967631  -1.87257284236569
H  4.67820687809533  -0.57937410013385  -1.87146923229254
H  5.98417863882481  -0.99487337190497  -1.23399849058471
O  -6.81281413595218  2.89402443891017  -1.27937152599846
H  -5.89303545029005  3.10966559715438  -1.11538236490016
H  -7.09461312180748  3.62540731157287  -1.84083477970443
O  -4.43931242940301  -1.56092186512752  -2.51269885367628
H  -5.34647070527025  -1.78031888520023  -2.20582249206303
H  -3.98123306694687  -0.82805927414157  -2.03206683447162
O  -5.39015873421108  3.35269486776816  2.03013261960411
H  -6.18588118007592  3.38146330063510  1.40203696724761
H  -4.73912004269895  3.48916074393450  1.31194890044642
O  5.11980107385666  -0.64268708348266  2.18252124521866
Cl  4.06565365996498  -1.89739101337621  2.71821233983341
H  5.90570988685985  -0.89940778503974  2.71509191375399
O  0.10126488100541  5.09386352122804  0.64142101130398
Cl  -1.02957643247248  5.65706722464687  1.57789321999084
H  0.86656896096372  6.41978901992979  3.33589070417307
O  1.24221914496921  5.19828541832050  3.40268813951502
Cl  -0.99891302431591  2.35324503401791  7.23909293202702
H  1.34848242958263  4.84543512081546  2.55596595103665
O  0.49345443710973  -1.09715350195848  -7.54393080931878
Cl  0.81292630578701  -0.43944875385023  -5.84231184637902
H  0.56551013807192  -2.02796140769269  -7.30672363453333
C  3.85499565811765  2.14112898805107  -3.56379042732074
C  2.98690105631983  2.66036100064731  -2.54767144297270
C  1.92667860727218  1.91483785302415  -2.05608372860973
C  1.90598204041377  0.60425551393042  -2.31983774664027
C  2.74858910327802  0.08507422595149  -3.30596951908340
C  3.76574894924624  0.77609887417536  -3.98032121698324
H  3.03992546085532  3.64214846758411  -2.11044197707962
H  1.20654801116202  2.41199871202358  -1.40993302857039
C  -1.73776986900756  -1.40816656802959  0.37697975980831
C  -2.98211751385272  -0.72246102824213  0.48626706205326
C  -1.70227938986093  -2.61501732047027  1.09042830746636
C  -3.94878694735467  -1.02610622290703  1.50411452702454
H  -3.06612345759420  0.18985606442558  -0.12082219258673
C  -2.78319314032127  -3.05287364794335  1.81959515711224
C  -3.94869191111851  -2.28300632552352  2.04725046639057
H  -4.78815737425431  -0.37629520493684  1.61886550525426
H  -2.81513508824291  -4.07061293861479  2.18517193991567
Cl  4.95422046410786  3.27428830949151  -4.09246536625536
Cl  -5.19193626515043  -2.95172071151993  3.02347104089122
N  1.13524881948561  -0.13139864205739  -1.50476720211465
H  1.46341952101124  -1.08412774045734  -1.31601587967891
C  -0.15449218295304  0.05471068514666  -1.12970448147205
O  -0.83692410867573  1.01320471509705  -1.51838187206394
N  -0.53229568738150  -1.06867880089873  -0.33428292225445
H  0.03640031038102  -1.89522022545645  -0.54820726198313
H  -0.88211751706323  -3.28815415542278  0.88314539361666
H  2.57285547818897  -0.94872132878117  -3.58177261049549
Cl  4.49537665635233  0.02458285999221  -5.45806808246634
