 xtb: 6.6.1 (8d0f1dd)
          04072509403D

  3  2  0     0  0            999 V2000
    3.7913   -2.3353    2.2515 O   0  0  0  0  0  0  0  0  0  0  0  0
    3.9180   -1.7319    3.8434 Cl  0  0  0  0  0  0  0  0  0  0  0  0
    3.8928   -3.2930    2.3150 H   0  0  0  0  0  0  0  0  0  0  0  0
  1  2  1  0  0  0  0
  1  3  1  0  0  0  0
M  END
