70

O  -2.55321788574824  -6.19987804779600  -1.04216857228593
H  -2.88446572164873  -5.47767393712149  -1.61944562337874
H  -2.39210741955285  -6.90995168405576  -1.68266693283562
O  -1.27644121636542  -3.83135251088314  1.44192763393985
H  -1.56745422009571  -4.50710926597757  2.02057933842112
H  -1.72948328861461  -2.91609481340160  1.65856601816199
O  -1.61790905072606  3.74438645684013  4.09963114573984
H  -1.44040508014009  4.63441405032749  4.49995997705879
H  -2.26073388111630  3.97913813615752  3.34438634618454
O  0.02006229227039  7.10926868013634  4.62655334997972
H  0.63735379884320  7.72906675877237  5.00235505906498
H  -0.91806482959199  7.41254234899725  4.86000259805826
O  0.09623189967754  1.27142743668916  7.99472888336742
H  0.73024955832686  0.49414905268330  7.74684547658464
H  -0.17919035298437  1.77333034232602  7.25723442304087
O  -0.72800598418999  0.63708810509540  2.68648439952356
H  -1.18147467293501  0.64136281676141  3.53060466142643
H  -1.17707432482792  0.16826637440331  1.99787395308004
O  2.46067779552266  4.47011575542078  1.60959369171000
H  2.85133296846274  4.94905133704803  2.33694326630016
H  1.52356860579713  4.38896099166971  1.72314408114671
O  -3.09952549548101  0.60274370882709  6.02969718412351
H  -3.41972151866308  0.57356735587704  5.12930501914724
H  -3.87331049378344  0.68123552416858  6.62270074766701
O  -0.68764284570177  -0.31240910345318  -1.10781195808972
H  -0.29153378983456  -0.44165720605479  -2.04192389761945
H  -0.31293159615452  -1.14574239281036  -0.64202843513828
O  4.04159856979559  -0.89518916317005  1.26206647225474
H  4.56156610132645  -0.69287815084964  0.47437944273360
H  3.73063415898467  -1.74046643897844  0.97768894967512
O  1.73876163647637  -4.59175097344185  6.28900619457826
Cl  2.57863349897246  -3.05742105087675  6.19644701587756
H  0.83236555537963  -4.49938826398428  5.97624336200401
O  1.07725664058446  4.01726767237746  -1.73824343032434
Cl  -0.78912889755800  3.47442468612339  -2.17668637317523
H  1.56365967958755  3.94230573754471  -2.54855535420508
O  1.89439511314530  -1.75922346053597  3.44071334479256
Cl  3.93181817414773  -1.03333314916955  3.61639503599858
H  1.65107818387728  -2.06098195151768  4.33677270619668
O  -3.76728112229481  3.41490419391764  -0.65209267984643
Cl  -3.30562513223119  1.78408374654873  -0.39775073581093
H  -3.26777902682021  3.58325874289012  -1.45695860591523
C  4.76507660883921  1.92461164421919  -3.84878284190650
C  4.15515313544318  3.18091778832232  -4.04630735540543
C  2.80967869690943  3.28620736212506  -4.36004548816822
C  2.09195304439579  2.11253097893588  -4.38055844982624
C  2.64261683143581  0.83906063205922  -4.26262522358724
C  3.99891250376731  0.77249624747905  -4.09111381550045
H  4.68204065072003  4.14225012606517  -3.94132833692550
H  2.41934433680497  4.29211789971273  -4.64039960421525
C  -2.58874088518721  0.46408575799874  -4.66093285489964
C  -2.39268952995921  -0.84798119364161  -4.20979656579438
C  -3.90463679850511  0.95978260881647  -4.87830158412658
C  -3.43509050779833  -1.55283124582992  -3.58501083542749
H  -1.45417473373930  -1.29552382892577  -4.17944814522370
C  -4.78078861359798  0.55334516157494  -3.88725090821825
C  -4.49206087164502  -0.69130044216289  -3.30389091099855
H  -3.24582928090592  -2.48531774375227  -3.10631413881660
H  -5.74029890456303  1.11601390753522  -3.75658447984020
Cl  6.34556128462197  1.79858538984719  -3.18171978642184
Cl  -5.28157820528096  -1.18968962380657  -1.83322264491242
N  0.68501603384653  2.16881232076061  -4.56498770785014
H  0.54699123795305  2.80975374166204  -5.32574916357823
C  -0.23619495073762  1.17419729806484  -4.53150959115225
O  0.16516435121031  0.15647169598013  -4.02921783202423
N  -1.51915448518162  1.47078120377921  -4.94421121637178
H  -1.70260711181128  2.42425833506670  -4.65125364470044
H  -4.05025905784863  1.74761546253864  -5.56392988555675
H  2.01494771226746  -0.06073776705980  -4.40912294680458
Cl  4.91357748374157  -0.65704364276634  -4.06584204712341
