70

O  -4.39865079428304  -5.51679334063207  -1.18120283233730
H  -5.11441485547248  -5.84509725871130  -0.64702021846974
H  -4.48079325315875  -4.56709550978754  -1.25537788495789
O  -1.50958192363079  -4.10911235249709  0.14921936296502
H  -1.05640989030120  -3.23412651414861  0.30854531064615
H  -1.33593012857099  -4.45657866053863  -0.70450529410325
O  -1.39894683718345  3.91112424644453  3.23238357487305
H  -1.09209162718150  3.12997743114886  3.81767873880310
H  -2.39513229034394  3.93631929489353  3.57175272183793
O  -1.31140895316802  7.89023872852372  4.31317320647758
H  -0.36759134774773  7.81144617808250  4.44938375606839
H  -1.75854627989975  8.67334023133132  4.68253559860420
O  -0.04923684415318  0.64841328602077  10.18638963328685
H  -0.09717096989806  0.81002717817278  9.28613244466754
H  0.78456031509721  0.82422840818214  10.72879670266817
O  -1.88559773089248  1.25393039567995  2.75637778460508
H  -2.51400555414227  0.59152859597411  2.24999970248338
H  -1.06766692502112  1.28405304364531  2.32269175491212
O  4.17103324828163  2.23741807296833  1.20460995499738
H  4.73020005070459  1.66136331283130  1.76768546101430
H  4.79493274456256  2.36820222185491  0.44597497794046
O  -2.45561130997885  0.90348255039113  6.83603943478692
H  -2.55382298183140  -0.05949488155757  6.80589677904398
H  -3.24663220102535  1.29184904549337  6.44693418136056
O  -0.16180897779231  0.45024558910542  -1.15794981162012
H  -0.60021742203761  -0.33690669880151  -0.93563300891067
H  -0.68925258554373  0.96265337772922  -1.77131858366807
O  4.32238523043872  0.47015737204655  0.61855448913493
H  4.56610845841614  0.21379222740600  -0.27814480465321
H  3.35987372821779  0.32747719395789  0.83992029457959
O  2.66710992618445  -4.29811824404406  6.75732304681402
Cl  2.42498656967877  -3.10426680303293  5.53906394382368
H  1.79251365477497  -4.33099043182446  7.10376938005028
O  0.70544259181743  4.44487055324939  -1.53097582021494
Cl  -0.00722349631605  3.09687407842430  -2.30376661281088
H  0.31550060225023  5.24978250889861  -1.90011242388114
O  2.44628642644259  -2.44352514544992  2.53203493490304
Cl  3.93144156563341  -1.05663780503160  4.46695207222765
H  2.13759579755350  -1.58079709122644  2.44146774792716
O  -4.67170321562425  2.82086119865450  -0.89474550155620
Cl  -3.34740326974630  1.83354197147319  -0.88014677380657
H  -5.02350112444178  3.02059809525046  -1.73862312593825
C  4.62652067075055  2.10578061129885  -3.54133719867329
C  3.84813033697456  3.31152678270785  -3.49728773927228
C  2.49691322276043  3.22974900195481  -3.86771842419490
C  2.03552923256624  1.96470985399634  -4.26454881786863
C  2.81079718528019  0.80151012907413  -4.24566928975943
C  4.10380631045877  0.86182795188101  -3.89796540448393
H  4.21449766660071  4.26346782915402  -3.18003048067685
H  1.86232982822458  4.12390123986061  -3.92498572725910
C  -2.57395019663618  0.26209122817742  -4.58018841169299
C  -2.52067265587941  -1.05552295028752  -4.17440255115596
C  -3.86621370044251  0.82398566557669  -4.71647272870159
C  -3.45597341703276  -1.44223901812042  -3.24014206644505
H  -1.55761962174055  -1.57809048009520  -4.24249262304373
C  -4.86328181104276  0.27142623331910  -4.02027691057309
C  -4.59242662541664  -0.69414020151208  -3.10190251795432
H  -3.26159774489476  -2.33269418976848  -2.62843783470704
H  -5.83753442037641  0.74557390477167  -4.16647737643800
Cl  6.42094883637608  2.11556522772656  -3.22653015831242
Cl  -5.39280809439858  -0.81933351325441  -1.51205783559498
N  0.64640290872019  1.71015801344649  -4.58552683405106
H  0.23833729985860  2.32143795304560  -5.29336554426340
C  -0.09130574186098  0.60397692702927  -4.54862110944756
O  0.22981151597939  -0.36659117524933  -3.92344564859345
N  -1.43543239622468  0.89580274583841  -5.14305766937788
H  -1.62721072876172  1.89415660842117  -5.22170489767929
H  -4.07768541667173  1.75561377997734  -5.28439002624792
H  2.47721532832133  -0.15880970965353  -4.60543837936614
Cl  5.14342106961618  -0.40928117064196  -4.17323538287452
