70

O  -6.07833963521562  -4.63362026372940  -1.12778976083545
H  -5.95773113591370  -3.65976375281693  -1.12878764787448
H  -6.98842674529340  -4.79579436448159  -0.82330218168975
O  -1.64018825948350  -4.32551791606702  -1.28462602847896
H  -2.21765974097867  -3.70020552705058  -0.75299817953122
H  -0.97571861807563  -4.25375439227506  -0.62117172628982
O  -1.18365230484021  4.15964703143253  2.61274845636641
H  -1.29295497578222  3.08688350194805  2.64337374456266
H  -1.23295921534831  4.33044023510087  1.66059656678772
O  -2.48593913400261  8.00973692456421  3.66228169180634
H  -2.11354798980249  7.08509219115770  3.47901780147834
H  -1.83977796781258  8.59558722008424  4.05523743463608
O  -0.12908297114048  0.09177225006624  11.43042987731044
H  0.35099876626762  -0.00506483064464  12.29730053833212
H  -0.81252970169834  -0.55684684895608  11.57952529743803
O  -2.94605670078682  1.71199769701634  2.76413145873292
H  -3.76325315371195  1.87066473871961  2.16507154058958
H  -2.84862419162265  0.70643494941846  2.46344466743692
O  5.75641925494437  3.74701963436917  2.01069959439072
H  5.47926917779899  4.27194537545559  1.28094074976068
H  5.12179035849535  3.11574002278348  2.34554413633816
O  -1.79077372868711  1.09486856213159  7.40022925247512
H  -1.95924017972717  2.01060205024754  7.04853165269016
H  -0.86062054736825  0.81081205172026  7.28343437453706
O  0.10970440498247  0.81304686148123  -1.03984345709416
H  0.07289544584169  1.43442069167231  -0.27756440995652
H  1.00031333211289  0.52260928489890  -0.98546916382465
O  4.67793718091568  -1.96088175772955  -1.17115408047200
H  5.23988972267997  -2.02941134887689  -0.42188946344936
H  5.36266180615800  -1.96897350625247  -1.86953381552031
O  3.16310169144481  -3.32984011091042  6.59348799827236
Cl  2.31486062181464  -3.47578289932865  5.12064608709129
H  2.78465366677176  -4.00763305674586  7.21830730792357
O  0.05489279909329  4.70190378071359  -1.44399643059935
Cl  0.53627653301901  3.16797685600943  -1.96451664842088
H  0.41366798743808  4.78654562419254  -0.51501710542718
O  3.08489311135535  -2.82639763048261  1.72725943329467
Cl  3.92040527511501  -0.93378295512716  5.23624130180375
H  3.30388829836631  -3.02657144698884  0.78072187556360
O  -5.18652287093155  2.06795752207587  -1.06293916055988
Cl  -3.54027799425446  2.03450735739091  -1.31781549641343
H  -5.52898597061755  1.38030065444107  -1.71622825887018
C  4.62293490074830  2.11273399514552  -3.39412643094582
C  3.60038502941582  3.03554237056046  -3.11778084098929
C  2.38325814026789  2.93229830669084  -3.78509395499479
C  2.10061958910045  1.63986727346395  -4.35146864186954
C  2.99749098744735  0.58798580579056  -4.28490086760514
C  4.25851421139947  0.87830041332384  -3.89883698135646
H  3.82842734780293  3.92988539217709  -2.56146573604237
H  1.69212012258279  3.68029166387623  -3.89876794063677
C  -2.39284965134879  -0.17571642984658  -4.46210205172636
C  -2.40214809075599  -1.33587968198880  -3.68793875484898
C  -3.57083145017746  0.57333941364795  -4.52196513356688
C  -3.46387960048404  -1.46843700350768  -2.77634527656824
H  -1.57572369827811  -2.07407813579506  -3.74681358719663
C  -4.49483457816596  0.48462832288623  -3.54217861591332
C  -4.49338610018971  -0.56207812966307  -2.58786499382609
H  -3.38581249840017  -2.39132496451241  -2.23180877408644
H  -5.23074487926850  1.22681547474938  -3.54737897571547
Cl  6.30370503612493  2.69621758048390  -3.10582481549083
Cl  -5.76840655532917  -0.61273844184039  -1.39054298497924
N  0.76705350001172  1.49599836246465  -4.82022246110713
H  0.29543718720984  2.35790831211582  -4.59710474469005
C  -0.19396020385008  0.35525469631683  -4.72840280393121
O  0.21000557774638  -0.52698581592864  -3.96907095929045
N  -1.41063969062346  0.42113083418325  -5.26452894844629
H  -1.72730328998864  0.78172784746489  -6.16106038950318
H  -3.56812994191226  1.41616619189395  -5.20334210908836
H  2.72940184713063  -0.41022826125720  -4.48883124961499
Cl  5.43866599246299  -0.38169351237764  -4.17687242835109
