 xtb: 6.6.1 (8d0f1dd)
          04072509403D

 70 56  0     0  0            999 V2000
   -7.1831   -3.7468   -0.9705 O   0  0  0  0  0  0  0  0  0  0  0  0
   -7.6335   -3.3545   -1.6945 H   0  0  0  0  0  0  0  0  0  0  0  0
   -6.4776   -3.1113   -0.8002 H   0  0  0  0  0  0  0  0  0  0  0  0
   -1.7626   -4.4965   -2.2535 O   0  0  0  0  0  0  0  0  0  0  0  0
   -1.6358   -4.4402   -1.2870 H   0  0  0  0  0  0  0  0  0  0  0  0
   -1.7567   -3.5667   -2.2882 H   0  0  0  0  0  0  0  0  0  0  0  0
   -0.9777    4.3536    2.0191 O   0  0  0  0  0  0  0  0  0  0  0  0
   -0.8737    5.2156    2.5515 H   0  0  0  0  0  0  0  0  0  0  0  0
   -1.7944    3.9859    2.3041 H   0  0  0  0  0  0  0  0  0  0  0  0
   -3.1001    7.5254    2.9611 O   0  0  0  0  0  0  0  0  0  0  0  0
   -3.8476    8.1529    3.0150 H   0  0  0  0  0  0  0  0  0  0  0  0
   -3.3838    6.6777    2.5137 H   0  0  0  0  0  0  0  0  0  0  0  0
   -0.2984   -0.4309   11.8366 O   0  0  0  0  0  0  0  0  0  0  0  0
   -0.0230    0.5319   11.7317 H   0  0  0  0  0  0  0  0  0  0  0  0
    0.5493   -0.7477   12.1836 H   0  0  0  0  0  0  0  0  0  0  0  0
   -3.7982    1.9936    2.7055 O   0  0  0  0  0  0  0  0  0  0  0  0
   -4.6786    1.8380    3.1156 H   0  0  0  0  0  0  0  0  0  0  0  0
   -3.9111    1.3878    1.8657 H   0  0  0  0  0  0  0  0  0  0  0  0
    6.7707    4.8625    2.6585 O   0  0  0  0  0  0  0  0  0  0  0  0
    6.5920    3.9909    2.2347 H   0  0  0  0  0  0  0  0  0  0  0  0
    6.5066    5.5589    2.0702 H   0  0  0  0  0  0  0  0  0  0  0  0
   -1.0493    1.3169    7.6043 O   0  0  0  0  0  0  0  0  0  0  0  0
   -1.4943    0.6042    8.0323 H   0  0  0  0  0  0  0  0  0  0  0  0
   -1.6617    1.7527    6.9960 H   0  0  0  0  0  0  0  0  0  0  0  0
    0.3127    0.5134   -0.6678 O   0  0  0  0  0  0  0  0  0  0  0  0
   -0.0772    0.9786    0.1356 H   0  0  0  0  0  0  0  0  0  0  0  0
    1.2561    0.3293   -0.3993 H   0  0  0  0  0  0  0  0  0  0  0  0
    4.9984   -3.7731   -2.4973 O   0  0  0  0  0  0  0  0  0  0  0  0
    5.6550   -3.2976   -1.9374 H   0  0  0  0  0  0  0  0  0  0  0  0
    5.2279   -4.6834   -2.1517 H   0  0  0  0  0  0  0  0  0  0  0  0
    3.1269   -2.6870    6.0268 O   0  0  0  0  0  0  0  0  0  0  0  0
    2.2824   -3.8279    4.9632 Cl  0  0  0  0  0  0  0  0  0  0  0  0
    3.0614   -3.1084    6.9134 H   0  0  0  0  0  0  0  0  0  0  0  0
   -0.3852    4.9446   -1.1828 O   0  0  0  0  0  0  0  0  0  0  0  0
    0.6707    3.4709   -1.4329 Cl  0  0  0  0  0  0  0  0  0  0  0  0
   -0.6283    5.2384   -2.0857 H   0  0  0  0  0  0  0  0  0  0  0  0
    3.6096   -3.1869    0.9276 O   0  0  0  0  0  0  0  0  0  0  0  0
    4.0017   -0.6148    5.8142 Cl  0  0  0  0  0  0  0  0  0  0  0  0
    3.2942   -2.9590    1.8866 H   0  0  0  0  0  0  0  0  0  0  0  0
   -5.3070    2.1179   -0.9270 O   0  0  0  0  0  0  0  0  0  0  0  0
   -3.7143    2.3274   -1.5356 Cl  0  0  0  0  0  0  0  0  0  0  0  0
   -5.4727    1.1674   -0.6216 H   0  0  0  0  0  0  0  0  0  0  0  0
    4.5436    2.1041   -3.3846 C   0  0  0  0  0  0  0  0  0  0  0  0
    3.5977    3.1017   -3.6636 C   0  0  0  0  0  0  0  0  0  0  0  0
    2.3378    2.8035   -4.0676 C   0  0  0  0  0  0  0  0  0  0  0  0
    2.1172    1.4784   -4.4611 C   0  0  0  0  0  0  0  0  0  0  0  0
    3.0509    0.4673   -4.3360 C   0  0  0  0  0  0  0  0  0  0  0  0
    4.3615    0.7935   -3.8877 C   0  0  0  0  0  0  0  0  0  0  0  0
    3.9427    4.0894   -3.3705 H   0  0  0  0  0  0  0  0  0  0  0  0
    1.6261    3.6436   -4.1879 H   0  0  0  0  0  0  0  0  0  0  0  0
   -2.3763   -0.1963   -4.2072 C   0  0  0  0  0  0  0  0  0  0  0  0
   -2.3467   -1.2299   -3.2481 C   0  0  0  0  0  0  0  0  0  0  0  0
   -3.4357    0.6316   -4.2673 C   0  0  0  0  0  0  0  0  0  0  0  0
   -3.4092   -1.3205   -2.4251 C   0  0  0  0  0  0  0  0  0  0  0  0
   -1.4547   -1.7798   -3.1373 H   0  0  0  0  0  0  0  0  0  0  0  0
   -4.5360    0.4671   -3.5035 C   0  0  0  0  0  0  0  0  0  0  0  0
   -4.5791   -0.5513   -2.6043 C   0  0  0  0  0  0  0  0  0  0  0  0
   -3.4144   -1.9724   -1.5865 H   0  0  0  0  0  0  0  0  0  0  0  0
   -5.3271    1.2491   -3.6203 H   0  0  0  0  0  0  0  0  0  0  0  0
    6.0329    2.8890   -2.8922 Cl  0  0  0  0  0  0  0  0  0  0  0  0
   -5.8885   -0.8753   -1.4098 Cl  0  0  0  0  0  0  0  0  0  0  0  0
    0.8144    1.0678   -4.9045 N   0  0  0  0  0  0  0  0  0  0  0  0
    0.4717    1.6351   -5.6531 H   0  0  0  0  0  0  0  0  0  0  0  0
    0.0556   -0.0017   -4.5241 C   0  0  0  0  0  0  0  0  0  0  0  0
    0.6837   -0.7605   -3.8148 O   0  0  0  0  0  0  0  0  0  0  0  0
   -1.3325    0.0038   -4.9840 N   0  0  0  0  0  0  0  0  0  0  0  0
   -1.4651    0.3346   -5.9434 H   0  0  0  0  0  0  0  0  0  0  0  0
   -3.2893    1.5101   -4.8260 H   0  0  0  0  0  0  0  0  0  0  0  0
    2.8650   -0.5940   -4.5558 H   0  0  0  0  0  0  0  0  0  0  0  0
    5.7009   -0.3073   -4.0781 Cl  0  0  0  0  0  0  0  0  0  0  0  0
  1  2  1  0  0  0  0
  1  3  1  0  0  0  0
  4  5  1  0  0  0  0
  4  6  1  0  0  0  0
  7  8  1  0  0  0  0
  7  9  1  0  0  0  0
 10 11  1  0  0  0  0
 10 12  1  0  0  0  0
 13 14  1  0  0  0  0
 13 15  1  0  0  0  0
 16 17  1  0  0  0  0
 16 18  1  0  0  0  0
 19 20  1  0  0  0  0
 19 21  1  0  0  0  0
 22 23  1  0  0  0  0
 22 24  1  0  0  0  0
 25 26  1  0  0  0  0
 25 27  1  0  0  0  0
 28 29  1  0  0  0  0
 28 30  1  0  0  0  0
 31 32  1  0  0  0  0
 31 33  1  0  0  0  0
 34 35  1  0  0  0  0
 34 36  1  0  0  0  0
 37 39  1  0  0  0  0
 40 41  1  0  0  0  0
 40 42  1  0  0  0  0
 43 44  4  0  0  0  0
 44 45  4  0  0  0  0
 45 46  4  0  0  0  0
 46 47  4  0  0  0  0
 43 48  4  0  0  0  0
 47 48  4  0  0  0  0
 44 49  1  0  0  0  0
 45 50  1  0  0  0  0
 51 52  4  0  0  0  0
 51 53  4  0  0  0  0
 52 54  2  0  0  0  0
 52 55  1  0  0  0  0
 53 56  4  0  0  0  0
 54 57  4  0  0  0  0
 56 57  4  0  0  0  0
 54 58  1  0  0  0  0
 56 59  1  0  0  0  0
 43 60  1  0  0  0  0
 57 61  1  0  0  0  0
 46 62  1  0  0  0  0
 62 63  1  0  0  0  0
 62 64  1  0  0  0  0
 64 65  2  0  0  0  0
 51 66  1  0  0  0  0
 64 66  1  0  0  0  0
 66 67  1  0  0  0  0
 53 68  1  0  0  0  0
 47 69  1  0  0  0  0
 48 70  1  0  0  0  0
M  END
